docs/examples/api/gld_pypower/R1-12.47-1_processed.glm
clock {
     timezone EST+5EDT;
  timestamp '2010-06-01 00:00:00';
  stoptime '2010-06-01 00:01:00';
}
#set profiler=1
module tape;
module powerflow{
     solver_method NR;
      default_maximum_voltage_error 1e-6;
};
#ifdef WANT_VI_DUMP
#endif
module climate;
module generators;
module connection;
module residential {
  implicit_enduses NONE;
};
#include "appliance_schedules.glm";
#include "water_and_setpoint_schedule_v5.glm";
#include "commercial_schedules.glm";
#set minimum_timestep=5;
#set relax_naming_rules=1;
#set warn=0;

// The following module and object declaration is required for HELICS
module connection;
#ifdef USE_HELICS
object helics_msg {
  name GLD;
  configure gridlabd_config.json;
}
#endif

object metrics_collector_writer {
  interval 300;
  interim 43200;
  filename ${METRICS_FILE};
  // filename R1-12.47-1_processed_metrics.json;
};
object climate {
  name localWeather;
  interpolate QUADRATIC;
  latitude 30.0;
  longitude -110.0;
};
// default IEEE 1547-2018 settings for Category B
#define INV_VBASE=240.0
#define INV_V1=0.92
#define INV_V2=0.98
#define INV_V3=1.02
#define INV_V4=1.08
#define INV_Q1=0.44
#define INV_Q2=0.00
#define INV_Q3=0.00
#define INV_Q4=-0.44
#define INV_VIN=200.0
#define INV_IIN=32.5
#define INV_VVLOCKOUT=300.0
#define INV_VW_V1=1.05 // 1.05833
#define INV_VW_V2=1.10
#define INV_VW_P1=1.0
#define INV_VW_P2=0.0
#ifdef WANT_VI_DUMP
object voltdump {
  filename Voltage_Dump_R1-12.47-1_processed.csv;
  mode polar;
}
object currdump {
  filename Current_Dump_R1-12.47-1_processed.csv;
  mode polar;
}
#endif // &&& end of common section for combining TESP cases
// solar inverter mode on this feeder
#define INVERTER_MODE=CONSTANT_PF
object transformer_configuration {
  name XF1_PADMOUNT_AS_10;
  power_rating 10.00;
  powerA_rating 10.00;
  powerB_rating 0.0;
  powerC_rating 0.0;
  install_type PADMOUNT;
  connect_type SINGLE_PHASE_CENTER_TAPPED;
  primary_voltage 7200.0;
  secondary_voltage 120.0;
  resistance 0.00950;
  resistance1 0.01900;
  resistance2 0.01900;
  reactance 0.01040;
  reactance1 0.00520;
  reactance2 0.00520;
  shunt_resistance 147.06;
  shunt_reactance 34.25;
}
object transformer_configuration {
  name XF1_PADMOUNT_AS_15;
  power_rating 15.00;
  powerA_rating 15.00;
  powerB_rating 0.0;
  powerC_rating 0.0;
  install_type PADMOUNT;
  connect_type SINGLE_PHASE_CENTER_TAPPED;
  primary_voltage 7200.0;
  secondary_voltage 120.0;
  resistance 0.00850;
  resistance1 0.01700;
  resistance2 0.01700;
  reactance 0.01176;
  reactance1 0.00588;
  reactance2 0.00588;
  shunt_resistance 166.67;
  shunt_reactance 39.53;
}
object transformer_configuration {
  name XF1_POLETOP_AS_25;
  power_rating 25.00;
  powerA_rating 25.00;
  powerB_rating 0.0;
  powerC_rating 0.0;
  install_type POLETOP;
  connect_type SINGLE_PHASE_CENTER_TAPPED;
  primary_voltage 7200.0;
  secondary_voltage 120.0;
  resistance 0.00800;
  resistance1 0.01600;
  resistance2 0.01600;
  reactance 0.01208;
  reactance1 0.00604;
  reactance2 0.00604;
  shunt_resistance 192.31;
  shunt_reactance 51.81;
}
object transformer_configuration {
  name XF1_POLETOP_AS_10;
  power_rating 10.00;
  powerA_rating 10.00;
  powerB_rating 0.0;
  powerC_rating 0.0;
  install_type POLETOP;
  connect_type SINGLE_PHASE_CENTER_TAPPED;
  primary_voltage 7200.0;
  secondary_voltage 120.0;
  resistance 0.00950;
  resistance1 0.01900;
  resistance2 0.01900;
  reactance 0.01040;
  reactance1 0.00520;
  reactance2 0.00520;
  shunt_resistance 147.06;
  shunt_reactance 34.25;
}
object transformer_configuration {
  name XF1_PADMOUNT_AS_5;
  power_rating 5.00;
  powerA_rating 5.00;
  powerB_rating 0.0;
  powerC_rating 0.0;
  install_type PADMOUNT;
  connect_type SINGLE_PHASE_CENTER_TAPPED;
  primary_voltage 7200.0;
  secondary_voltage 120.0;
  resistance 0.01050;
  resistance1 0.02100;
  resistance2 0.02100;
  reactance 0.01224;
  reactance1 0.00612;
  reactance2 0.00612;
  shunt_resistance 111.11;
  shunt_reactance 29.59;
}
object transformer_configuration {
  name XF1_POLETOP_AS_5;
  power_rating 5.00;
  powerA_rating 5.00;
  powerB_rating 0.0;
  powerC_rating 0.0;
  install_type POLETOP;
  connect_type SINGLE_PHASE_CENTER_TAPPED;
  primary_voltage 7200.0;
  secondary_voltage 120.0;
  resistance 0.01050;
  resistance1 0.02100;
  resistance2 0.02100;
  reactance 0.01224;
  reactance1 0.00612;
  reactance2 0.00612;
  shunt_resistance 111.11;
  shunt_reactance 29.59;
}
object transformer_configuration {
  name XF1_POLETOP_BS_5;
  power_rating 5.00;
  powerA_rating 0.0;
  powerB_rating 5.00;
  powerC_rating 0.0;
  install_type POLETOP;
  connect_type SINGLE_PHASE_CENTER_TAPPED;
  primary_voltage 7200.0;
  secondary_voltage 120.0;
  resistance 0.01050;
  resistance1 0.02100;
  resistance2 0.02100;
  reactance 0.01224;
  reactance1 0.00612;
  reactance2 0.00612;
  shunt_resistance 111.11;
  shunt_reactance 29.59;
}
object transformer_configuration {
  name XF1_POLETOP_CS_5;
  power_rating 5.00;
  powerA_rating 0.0;
  powerB_rating 0.0;
  powerC_rating 5.00;
  install_type POLETOP;
  connect_type SINGLE_PHASE_CENTER_TAPPED;
  primary_voltage 7200.0;
  secondary_voltage 120.0;
  resistance 0.01050;
  resistance1 0.02100;
  resistance2 0.02100;
  reactance 0.01224;
  reactance1 0.00612;
  reactance2 0.00612;
  shunt_resistance 111.11;
  shunt_reactance 29.59;
}
object transformer_configuration {
  name XF1_PADMOUNT_BS_15;
  power_rating 15.00;
  powerA_rating 0.0;
  powerB_rating 15.00;
  powerC_rating 0.0;
  install_type PADMOUNT;
  connect_type SINGLE_PHASE_CENTER_TAPPED;
  primary_voltage 7200.0;
  secondary_voltage 120.0;
  resistance 0.00850;
  resistance1 0.01700;
  resistance2 0.01700;
  reactance 0.01176;
  reactance1 0.00588;
  reactance2 0.00588;
  shunt_resistance 166.67;
  shunt_reactance 39.53;
}
object transformer_configuration {
  name XF1_PADMOUNT_CS_5;
  power_rating 5.00;
  powerA_rating 0.0;
  powerB_rating 0.0;
  powerC_rating 5.00;
  install_type PADMOUNT;
  connect_type SINGLE_PHASE_CENTER_TAPPED;
  primary_voltage 7200.0;
  secondary_voltage 120.0;
  resistance 0.01050;
  resistance1 0.02100;
  resistance2 0.02100;
  reactance 0.01224;
  reactance1 0.00612;
  reactance2 0.00612;
  shunt_resistance 111.11;
  shunt_reactance 29.59;
}
object transformer_configuration {
  name XF1_POLETOP_BS_25;
  power_rating 25.00;
  powerA_rating 0.0;
  powerB_rating 25.00;
  powerC_rating 0.0;
  install_type POLETOP;
  connect_type SINGLE_PHASE_CENTER_TAPPED;
  primary_voltage 7200.0;
  secondary_voltage 120.0;
  resistance 0.00800;
  resistance1 0.01600;
  resistance2 0.01600;
  reactance 0.01208;
  reactance1 0.00604;
  reactance2 0.00604;
  shunt_resistance 192.31;
  shunt_reactance 51.81;
}
object transformer_configuration {
  name XF1_PADMOUNT_CS_25;
  power_rating 25.00;
  powerA_rating 0.0;
  powerB_rating 0.0;
  powerC_rating 25.00;
  install_type PADMOUNT;
  connect_type SINGLE_PHASE_CENTER_TAPPED;
  primary_voltage 7200.0;
  secondary_voltage 120.0;
  resistance 0.00800;
  resistance1 0.01600;
  resistance2 0.01600;
  reactance 0.01208;
  reactance1 0.00604;
  reactance2 0.00604;
  shunt_resistance 192.31;
  shunt_reactance 51.81;
}
object transformer_configuration {
  name XF1_PADMOUNT_BS_37p5;
  power_rating 37.50;
  powerA_rating 0.0;
  powerB_rating 37.50;
  powerC_rating 0.0;
  install_type PADMOUNT;
  connect_type SINGLE_PHASE_CENTER_TAPPED;
  primary_voltage 7200.0;
  secondary_voltage 120.0;
  resistance 0.00725;
  resistance1 0.01450;
  resistance2 0.01450;
  reactance 0.01320;
  reactance1 0.00660;
  reactance2 0.00660;
  shunt_resistance 212.77;
  shunt_reactance 57.47;
}
object transformer_configuration {
  name XF1_POLETOP_AS_15;
  power_rating 15.00;
  powerA_rating 15.00;
  powerB_rating 0.0;
  powerC_rating 0.0;
  install_type POLETOP;
  connect_type SINGLE_PHASE_CENTER_TAPPED;
  primary_voltage 7200.0;
  secondary_voltage 120.0;
  resistance 0.00850;
  resistance1 0.01700;
  resistance2 0.01700;
  reactance 0.01176;
  reactance1 0.00588;
  reactance2 0.00588;
  shunt_resistance 166.67;
  shunt_reactance 39.53;
}
object transformer_configuration {
  name XF1_POLETOP_BS_37p5;
  power_rating 37.50;
  powerA_rating 0.0;
  powerB_rating 37.50;
  powerC_rating 0.0;
  install_type POLETOP;
  connect_type SINGLE_PHASE_CENTER_TAPPED;
  primary_voltage 7200.0;
  secondary_voltage 120.0;
  resistance 0.00725;
  resistance1 0.01450;
  resistance2 0.01450;
  reactance 0.01320;
  reactance1 0.00660;
  reactance2 0.00660;
  shunt_resistance 212.77;
  shunt_reactance 57.47;
}
object transformer_configuration {
  name XF1_POLETOP_BS_15;
  power_rating 15.00;
  powerA_rating 0.0;
  powerB_rating 15.00;
  powerC_rating 0.0;
  install_type POLETOP;
  connect_type SINGLE_PHASE_CENTER_TAPPED;
  primary_voltage 7200.0;
  secondary_voltage 120.0;
  resistance 0.00850;
  resistance1 0.01700;
  resistance2 0.01700;
  reactance 0.01176;
  reactance1 0.00588;
  reactance2 0.00588;
  shunt_resistance 166.67;
  shunt_reactance 39.53;
}
object transformer_configuration {
  name XF1_PADMOUNT_BS_25;
  power_rating 25.00;
  powerA_rating 0.0;
  powerB_rating 25.00;
  powerC_rating 0.0;
  install_type PADMOUNT;
  connect_type SINGLE_PHASE_CENTER_TAPPED;
  primary_voltage 7200.0;
  secondary_voltage 120.0;
  resistance 0.00800;
  resistance1 0.01600;
  resistance2 0.01600;
  reactance 0.01208;
  reactance1 0.00604;
  reactance2 0.00604;
  shunt_resistance 192.31;
  shunt_reactance 51.81;
}
object transformer_configuration {
  name XF1_POLETOP_CS_100;
  power_rating 100.00;
  powerA_rating 0.0;
  powerB_rating 0.0;
  powerC_rating 100.00;
  install_type POLETOP;
  connect_type SINGLE_PHASE_CENTER_TAPPED;
  primary_voltage 7200.0;
  secondary_voltage 120.0;
  resistance 0.00600;
  resistance1 0.01200;
  resistance2 0.01200;
  reactance 0.01752;
  reactance1 0.00876;
  reactance2 0.00876;
  shunt_resistance 250.00;
  shunt_reactance 68.97;
}
object transformer_configuration {
  name XF1_POLETOP_CS_50;
  power_rating 50.00;
  powerA_rating 0.0;
  powerB_rating 0.0;
  powerC_rating 50.00;
  install_type POLETOP;
  connect_type SINGLE_PHASE_CENTER_TAPPED;
  primary_voltage 7200.0;
  secondary_voltage 120.0;
  resistance 0.00650;
  resistance1 0.01300;
  resistance2 0.01300;
  reactance 0.01416;
  reactance1 0.00708;
  reactance2 0.00708;
  shunt_resistance 222.22;
  shunt_reactance 64.94;
}
object transformer_configuration {
  name XF1_POLETOP_CS_25;
  power_rating 25.00;
  powerA_rating 0.0;
  powerB_rating 0.0;
  powerC_rating 25.00;
  install_type POLETOP;
  connect_type SINGLE_PHASE_CENTER_TAPPED;
  primary_voltage 7200.0;
  secondary_voltage 120.0;
  resistance 0.00800;
  resistance1 0.01600;
  resistance2 0.01600;
  reactance 0.01208;
  reactance1 0.00604;
  reactance2 0.00604;
  shunt_resistance 192.31;
  shunt_reactance 51.81;
}
object transformer_configuration {
  name XF1_POLETOP_CS_37p5;
  power_rating 37.50;
  powerA_rating 0.0;
  powerB_rating 0.0;
  powerC_rating 37.50;
  install_type POLETOP;
  connect_type SINGLE_PHASE_CENTER_TAPPED;
  primary_voltage 7200.0;
  secondary_voltage 120.0;
  resistance 0.00725;
  resistance1 0.01450;
  resistance2 0.01450;
  reactance 0.01320;
  reactance1 0.00660;
  reactance2 0.00660;
  shunt_resistance 212.77;
  shunt_reactance 57.47;
}
object transformer_configuration {
  name XF1_POLETOP_BS_10;
  power_rating 10.00;
  powerA_rating 0.0;
  powerB_rating 10.00;
  powerC_rating 0.0;
  install_type POLETOP;
  connect_type SINGLE_PHASE_CENTER_TAPPED;
  primary_voltage 7200.0;
  secondary_voltage 120.0;
  resistance 0.00950;
  resistance1 0.01900;
  resistance2 0.01900;
  reactance 0.01040;
  reactance1 0.00520;
  reactance2 0.00520;
  shunt_resistance 147.06;
  shunt_reactance 34.25;
}
object transformer_configuration {
  name XF1_POLETOP_CS_15;
  power_rating 15.00;
  powerA_rating 0.0;
  powerB_rating 0.0;
  powerC_rating 15.00;
  install_type POLETOP;
  connect_type SINGLE_PHASE_CENTER_TAPPED;
  primary_voltage 7200.0;
  secondary_voltage 120.0;
  resistance 0.00850;
  resistance1 0.01700;
  resistance2 0.01700;
  reactance 0.01176;
  reactance1 0.00588;
  reactance2 0.00588;
  shunt_resistance 166.67;
  shunt_reactance 39.53;
}
object transformer_configuration {
  name XF1_POLETOP_BS_50;
  power_rating 50.00;
  powerA_rating 0.0;
  powerB_rating 50.00;
  powerC_rating 0.0;
  install_type POLETOP;
  connect_type SINGLE_PHASE_CENTER_TAPPED;
  primary_voltage 7200.0;
  secondary_voltage 120.0;
  resistance 0.00650;
  resistance1 0.01300;
  resistance2 0.01300;
  reactance 0.01416;
  reactance1 0.00708;
  reactance2 0.00708;
  shunt_resistance 222.22;
  shunt_reactance 64.94;
}
object transformer_configuration {
  name XF1_POLETOP_CS_10;
  power_rating 10.00;
  powerA_rating 0.0;
  powerB_rating 0.0;
  powerC_rating 10.00;
  install_type POLETOP;
  connect_type SINGLE_PHASE_CENTER_TAPPED;
  primary_voltage 7200.0;
  secondary_voltage 120.0;
  resistance 0.00950;
  resistance1 0.01900;
  resistance2 0.01900;
  reactance 0.01040;
  reactance1 0.00520;
  reactance2 0.00520;
  shunt_resistance 147.06;
  shunt_reactance 34.25;
}
object transformer_configuration {
  name XF1_PADMOUNT_BS_10;
  power_rating 10.00;
  powerA_rating 0.0;
  powerB_rating 10.00;
  powerC_rating 0.0;
  install_type PADMOUNT;
  connect_type SINGLE_PHASE_CENTER_TAPPED;
  primary_voltage 7200.0;
  secondary_voltage 120.0;
  resistance 0.00950;
  resistance1 0.01900;
  resistance2 0.01900;
  reactance 0.01040;
  reactance1 0.00520;
  reactance2 0.00520;
  shunt_resistance 147.06;
  shunt_reactance 34.25;
}
object transformer_configuration {
  name XF1_PADMOUNT_CS_10;
  power_rating 10.00;
  powerA_rating 0.0;
  powerB_rating 0.0;
  powerC_rating 10.00;
  install_type PADMOUNT;
  connect_type SINGLE_PHASE_CENTER_TAPPED;
  primary_voltage 7200.0;
  secondary_voltage 120.0;
  resistance 0.00950;
  resistance1 0.01900;
  resistance2 0.01900;
  reactance 0.01040;
  reactance1 0.00520;
  reactance2 0.00520;
  shunt_resistance 147.06;
  shunt_reactance 34.25;
}
object transformer_configuration {
  name XF1_PADMOUNT_BS_5;
  power_rating 5.00;
  powerA_rating 0.0;
  powerB_rating 5.00;
  powerC_rating 0.0;
  install_type PADMOUNT;
  connect_type SINGLE_PHASE_CENTER_TAPPED;
  primary_voltage 7200.0;
  secondary_voltage 120.0;
  resistance 0.01050;
  resistance1 0.02100;
  resistance2 0.02100;
  reactance 0.01224;
  reactance1 0.00612;
  reactance2 0.00612;
  shunt_resistance 111.11;
  shunt_reactance 29.59;
}
object transformer_configuration {
  name XF1_PADMOUNT_CS_75;
  power_rating 75.00;
  powerA_rating 0.0;
  powerB_rating 0.0;
  powerC_rating 75.00;
  install_type PADMOUNT;
  connect_type SINGLE_PHASE_CENTER_TAPPED;
  primary_voltage 7200.0;
  secondary_voltage 120.0;
  resistance 0.00625;
  resistance1 0.01250;
  resistance2 0.01250;
  reactance 0.01352;
  reactance1 0.00676;
  reactance2 0.00676;
  shunt_resistance 238.10;
  shunt_reactance 67.11;
}
object transformer_configuration {
  name XF1_PADMOUNT_CS_50;
  power_rating 50.00;
  powerA_rating 0.0;
  powerB_rating 0.0;
  powerC_rating 50.00;
  install_type PADMOUNT;
  connect_type SINGLE_PHASE_CENTER_TAPPED;
  primary_voltage 7200.0;
  secondary_voltage 120.0;
  resistance 0.00650;
  resistance1 0.01300;
  resistance2 0.01300;
  reactance 0.01416;
  reactance1 0.00708;
  reactance2 0.00708;
  shunt_resistance 222.22;
  shunt_reactance 64.94;
}
object transformer_configuration {
  name XF1_POLETOP_CS_75;
  power_rating 75.00;
  powerA_rating 0.0;
  powerB_rating 0.0;
  powerC_rating 75.00;
  install_type POLETOP;
  connect_type SINGLE_PHASE_CENTER_TAPPED;
  primary_voltage 7200.0;
  secondary_voltage 120.0;
  resistance 0.00625;
  resistance1 0.01250;
  resistance2 0.01250;
  reactance 0.01352;
  reactance1 0.00676;
  reactance2 0.00676;
  shunt_resistance 238.10;
  shunt_reactance 67.11;
}
object transformer_configuration {
  name XF1_PADMOUNT_CS_37p5;
  power_rating 37.50;
  powerA_rating 0.0;
  powerB_rating 0.0;
  powerC_rating 37.50;
  install_type PADMOUNT;
  connect_type SINGLE_PHASE_CENTER_TAPPED;
  primary_voltage 7200.0;
  secondary_voltage 120.0;
  resistance 0.00725;
  resistance1 0.01450;
  resistance2 0.01450;
  reactance 0.01320;
  reactance1 0.00660;
  reactance2 0.00660;
  shunt_resistance 212.77;
  shunt_reactance 57.47;
}
object transformer_configuration {
  name XF1_PADMOUNT_BS_50;
  power_rating 50.00;
  powerA_rating 0.0;
  powerB_rating 50.00;
  powerC_rating 0.0;
  install_type PADMOUNT;
  connect_type SINGLE_PHASE_CENTER_TAPPED;
  primary_voltage 7200.0;
  secondary_voltage 120.0;
  resistance 0.00650;
  resistance1 0.01300;
  resistance2 0.01300;
  reactance 0.01416;
  reactance1 0.00708;
  reactance2 0.00708;
  shunt_resistance 222.22;
  shunt_reactance 64.94;
}
object transformer_configuration {
  name XF1_PADMOUNT_CS_15;
  power_rating 15.00;
  powerA_rating 0.0;
  powerB_rating 0.0;
  powerC_rating 15.00;
  install_type PADMOUNT;
  connect_type SINGLE_PHASE_CENTER_TAPPED;
  primary_voltage 7200.0;
  secondary_voltage 120.0;
  resistance 0.00850;
  resistance1 0.01700;
  resistance2 0.01700;
  reactance 0.01176;
  reactance1 0.00588;
  reactance2 0.00588;
  shunt_resistance 166.67;
  shunt_reactance 39.53;
}
object transformer_configuration {
  name XF1_POLETOP_AS_37p5;
  power_rating 37.50;
  powerA_rating 37.50;
  powerB_rating 0.0;
  powerC_rating 0.0;
  install_type POLETOP;
  connect_type SINGLE_PHASE_CENTER_TAPPED;
  primary_voltage 7200.0;
  secondary_voltage 120.0;
  resistance 0.00725;
  resistance1 0.01450;
  resistance2 0.01450;
  reactance 0.01320;
  reactance1 0.00660;
  reactance2 0.00660;
  shunt_resistance 212.77;
  shunt_reactance 57.47;
}
object transformer_configuration {
  name XF1_PADMOUNT_CN_100;
  power_rating 100.00;
  powerA_rating 0.0;
  powerB_rating 0.0;
  powerC_rating 100.00;
  install_type PADMOUNT;
  connect_type WYE_WYE;
  primary_voltage 12470.0;
  secondary_voltage 208.0;
  resistance 0.01450;
  reactance 0.02850;
  shunt_resistance 169.49;
  shunt_reactance 33.44;
}
object transformer_configuration {
  name XF1_POLETOP_AN_15;
  power_rating 15.00;
  powerA_rating 15.00;
  powerB_rating 0.0;
  powerC_rating 0.0;
  install_type POLETOP;
  connect_type WYE_WYE;
  primary_voltage 12470.0;
  secondary_voltage 208.0;
  resistance 0.01900;
  reactance 0.01770;
  shunt_resistance 126.58;
  shunt_reactance 22.57;
}
object transformer_configuration {
  name XF1_POLETOP_CN_50;
  power_rating 50.00;
  powerA_rating 0.0;
  powerB_rating 0.0;
  powerC_rating 50.00;
  install_type POLETOP;
  connect_type WYE_WYE;
  primary_voltage 12470.0;
  secondary_voltage 208.0;
  resistance 0.01600;
  reactance 0.02420;
  shunt_resistance 158.73;
  shunt_reactance 30.86;
}
object transformer_configuration {
  name XF3_PADMOUNT_ABCN_30;
  power_rating 30.00;
  powerA_rating 10.00;
  powerB_rating 10.00;
  powerC_rating 10.00;
  install_type PADMOUNT;
  connect_type WYE_WYE;
  primary_voltage 12470.0;
  secondary_voltage 208.0;
  resistance 0.01900;
  reactance 0.01770;
  shunt_resistance 126.58;
  shunt_reactance 22.57;
}
object transformer_configuration {
  name XF3_POLETOP_ABCN_30;
  power_rating 30.00;
  powerA_rating 10.00;
  powerB_rating 10.00;
  powerC_rating 10.00;
  install_type POLETOP;
  connect_type WYE_WYE;
  primary_voltage 12470.0;
  secondary_voltage 208.0;
  resistance 0.01900;
  reactance 0.01770;
  shunt_resistance 126.58;
  shunt_reactance 22.57;
}
object transformer_configuration {
  name XF3_POLETOP_ABCN_112p5;
  power_rating 112.50;
  powerA_rating 37.50;
  powerB_rating 37.50;
  powerC_rating 37.50;
  install_type POLETOP;
  connect_type WYE_WYE;
  primary_voltage 12470.0;
  secondary_voltage 480.0;
  resistance 0.01450;
  reactance 0.02850;
  shunt_resistance 169.49;
  shunt_reactance 33.44;
}
object transformer_configuration {
  name XF1_POLETOP_CN_75;
  power_rating 75.00;
  powerA_rating 0.0;
  powerB_rating 0.0;
  powerC_rating 75.00;
  install_type POLETOP;
  connect_type WYE_WYE;
  primary_voltage 12470.0;
  secondary_voltage 208.0;
  resistance 0.01600;
  reactance 0.02420;
  shunt_resistance 158.73;
  shunt_reactance 30.86;
}
object transformer_configuration {
  name XF1_PADMOUNT_CN_15;
  power_rating 15.00;
  powerA_rating 0.0;
  powerB_rating 0.0;
  powerC_rating 15.00;
  install_type PADMOUNT;
  connect_type WYE_WYE;
  primary_voltage 12470.0;
  secondary_voltage 208.0;
  resistance 0.01900;
  reactance 0.01770;
  shunt_resistance 126.58;
  shunt_reactance 22.57;
}
object transformer_configuration {
  name XF1_POLETOP_CN_37p5;
  power_rating 37.50;
  powerA_rating 0.0;
  powerB_rating 0.0;
  powerC_rating 37.50;
  install_type POLETOP;
  connect_type WYE_WYE;
  primary_voltage 12470.0;
  secondary_voltage 208.0;
  resistance 0.01750;
  reactance 0.02120;
  shunt_resistance 142.86;
  shunt_reactance 25.38;
}
object transformer_configuration {
  name XF1_PADMOUNT_AN_10;
  power_rating 10.00;
  powerA_rating 10.00;
  powerB_rating 0.0;
  powerC_rating 0.0;
  install_type PADMOUNT;
  connect_type WYE_WYE;
  primary_voltage 12470.0;
  secondary_voltage 208.0;
  resistance 0.01900;
  reactance 0.01770;
  shunt_resistance 126.58;
  shunt_reactance 22.57;
}
object transformer_configuration {
  name XF1_POLETOP_AN_5;
  power_rating 5.00;
  powerA_rating 5.00;
  powerB_rating 0.0;
  powerC_rating 0.0;
  install_type POLETOP;
  connect_type WYE_WYE;
  primary_voltage 12470.0;
  secondary_voltage 208.0;
  resistance 0.01900;
  reactance 0.01770;
  shunt_resistance 126.58;
  shunt_reactance 22.57;
}
object transformer_configuration {
  name XF1_POLETOP_AN_10;
  power_rating 10.00;
  powerA_rating 10.00;
  powerB_rating 0.0;
  powerC_rating 0.0;
  install_type POLETOP;
  connect_type WYE_WYE;
  primary_voltage 12470.0;
  secondary_voltage 208.0;
  resistance 0.01900;
  reactance 0.01770;
  shunt_resistance 126.58;
  shunt_reactance 22.57;
}
object triplex_line_conductor {
  name triplex_4/0_aa;
  resistance 0.48;
  geometric_mean_radius 0.0158;
  rating.summer.continuous 1000.0;
  rating.summer.emergency 1000.0;
  rating.winter.continuous 1000.0;
  rating.winter.emergency 1000.0;
}
object triplex_line_configuration {
  name tpx_config;
  conductor_1 triplex_4/0_aa;
  conductor_2 triplex_4/0_aa;
  conductor_N triplex_4/0_aa;
  insulation_thickness 0.08;
  diameter 0.522;
}
object regulator_configuration {
  name feeder_reg_cfg;
  Control OUTPUT_VOLTAGE;
  band_center 7520.0;
  band_width 120;
  connect_type WYE_WYE;
  time_delay 30;
  raise_taps 16;
  lower_taps 16;
  regulation 0.10;
  tap_pos_A 0;
  tap_pos_B 0;
  tap_pos_C 0;
}
object overhead_line_conductor {
  name ID_1137;
  rating.summer.continuous 256.0;
  geometric_mean_radius 0.01200 ft;
  resistance 0.16600;
}
object overhead_line_conductor {
  name ID_1138;
  rating.summer.continuous 530.0;
  geometric_mean_radius 0.02300 ft;
  resistance 0.30300;
}
object overhead_line_conductor {
  name ID_1139;
  rating.summer.continuous 197.0;
  geometric_mean_radius 0.00883 ft;
  resistance 1.51970;
}
object overhead_line_conductor {
  name ID_1140;
  rating.summer.continuous 204.0;
  geometric_mean_radius 0.00836 ft;
  resistance 0.94500;
}
object overhead_line_conductor {
  name ID_1141;
  rating.summer.continuous 180.0;
  geometric_mean_radius 0.00418 ft;
  resistance 1.62570;
}
object overhead_line_conductor {
  name ID_1142;
  rating.summer.continuous 858.0;
  geometric_mean_radius 0.02940 ft;
  resistance 0.16300;
}
object line_spacing {
  name ID_147;
  distance_AN 51.6 in;
}
object line_spacing {
  name ID_148;
  distance_BN 51.6 in;
}
object line_spacing {
  name ID_149;
  distance_AB 57.6 in;
  distance_BC 57.6 in;
  distance_AC 57.6 in;
  distance_AN 51.6 in;
  distance_BN 51.6 in;
  distance_CN 51.6 in;
}
object line_spacing {
  name ID_150;
  distance_CN 51.6 in;
}
object line_spacing {
  name ID_151;
  distance_AC 57.6 in;
  distance_AN 51.6 in;
  distance_CN 51.6 in;
}
object line_configuration {
  name ID_128;
  conductor_A ID_4385;
  conductor_N ID_4385;
  spacing ID_147;
}
object line_configuration {
  name ID_129;
  conductor_B ID_4385;
  conductor_N ID_4385;
  spacing ID_148;
}
object line_configuration {
  name ID_130;
  conductor_A ID_1137;
  conductor_N ID_1137;
  spacing ID_147;
}
object line_configuration {
  name ID_131;
  conductor_A ID_1137;
  conductor_B ID_1137;
  conductor_C ID_1137;
  conductor_N ID_1137;
  spacing ID_149;
}
object line_configuration {
  name ID_132;
  conductor_C ID_4385;
  conductor_N ID_4385;
  spacing ID_150;
}
object line_configuration {
  name ID_133;
  conductor_C ID_1137;
  conductor_N ID_1137;
  spacing ID_150;
}
object line_configuration {
  name ID_134;
  conductor_A ID_1138;
  conductor_B ID_1138;
  conductor_C ID_1138;
  conductor_N ID_1138;
  spacing ID_149;
}
object line_configuration {
  name ID_135;
  conductor_A ID_1139;
  conductor_N ID_1139;
  spacing ID_147;
}
object line_configuration {
  name ID_136;
  conductor_C ID_1140;
  conductor_N ID_1140;
  spacing ID_150;
}
object line_configuration {
  name ID_137;
  conductor_A ID_4386;
  conductor_B ID_4386;
  conductor_C ID_4386;
  conductor_N ID_4386;
  spacing ID_149;
}
object line_configuration {
  name ID_138;
  conductor_A ID_4387;
  conductor_B ID_4387;
  conductor_C ID_4387;
  conductor_N ID_4387;
  spacing ID_149;
}
object line_configuration {
  name ID_139;
  conductor_A ID_1141;
  conductor_N ID_1141;
  spacing ID_147;
}
object line_configuration {
  name ID_140;
  conductor_B ID_1137;
  conductor_N ID_1137;
  spacing ID_148;
}
object line_configuration {
  name ID_141;
  conductor_A ID_1140;
  conductor_N ID_1140;
  spacing ID_147;
}
object line_configuration {
  name ID_142;
  conductor_C ID_1141;
  conductor_N ID_1141;
  spacing ID_150;
}
object line_configuration {
  name ID_143;
  conductor_A ID_4385;
  conductor_C ID_4385;
  conductor_N ID_4385;
  spacing ID_151;
}
object line_configuration {
  name ID_144;
  conductor_A ID_1142;
  conductor_B ID_1142;
  conductor_C ID_1142;
  conductor_N ID_1142;
  spacing ID_149;
}
object line_configuration {
  name ID_145;
  conductor_B ID_1141;
  conductor_N ID_1141;
  spacing ID_148;
}
object line_configuration {
  name ID_146;
  conductor_B ID_1139;
  conductor_N ID_1139;
  spacing ID_148;
}
object triplex_line_conductor {
  name triplex_4/0 AA;
  resistance 0.48;
  geometric_mean_radius 0.0158;
  rating.summer.continuous 1000.0;
  rating.summer.emergency 1000.0;
  rating.winter.continuous 1000.0;
  rating.winter.emergency 1000.0;
}
object triplex_line_configuration {
  name ID_1835;
  conductor_1 triplex_4/0 AA;
  conductor_2 triplex_4/0 AA;
  conductor_N triplex_4/0 AA;
  insulation_thickness 0.08;
  diameter 0.522;
}
object underground_line_conductor {
  name ID_4385;
  rating.summer.continuous 142.0;
  outer_diameter 1.27;
  conductor_gmr 0.01142 ft;
  conductor_diameter 0.362;
  conductor_resistance 0.88704;
  neutral_gmr 0.00208 ft;
  neutral_resistance 14.87;
  neutral_diameter 0.0641;
  neutral_strands 16.0;
  insulation_relative_permitivitty 2.3;
}
object underground_line_conductor {
  name ID_4386;
  rating.summer.continuous 214.0;
  outer_diameter 1.32;
  conductor_gmr 0.0177 ft;
  conductor_diameter 0.528;
  conductor_resistance 0.433488;
  neutral_gmr 0.00208 ft;
  neutral_resistance 14.87;
  neutral_diameter 0.0641;
  neutral_strands 11.0;
  insulation_relative_permitivitty 2.3;
}
object underground_line_conductor {
  name ID_4387;
  rating.summer.continuous 662.0;
  outer_diameter 2.291;
  conductor_gmr 0.03592 ft;
  conductor_diameter 1.117;
  conductor_resistance 0.057024;
  neutral_gmr 0.00330 ft;
  neutral_resistance 5.9026;
  neutral_diameter 0.1019;
  neutral_strands 20.0;
  insulation_relative_permitivitty 2.3;
}
object fuse {
  name R1_12_47_1_fuse_1;
// downstream 43.63 kva on AS
  phases AN;
  from R1_12_47_1_node_596;
  to R1_12_47_1_node_599;
  current_limit 40;
  status CLOSED;
  mean_replacement_time 3600;
}
object fuse {
  name R1_12_47_1_fuse_2;
// downstream 87.10 kva on AS
  phases AN;
  from R1_12_47_1_node_594;
  to R1_12_47_1_node_595;
  current_limit 40;
  status CLOSED;
  mean_replacement_time 3600;
}
object fuse {
  name R1_12_47_1_fuse_3;
// downstream 5.90 kva on AS
  phases AN;
  from R1_12_47_1_node_508;
  to R1_12_47_1_node_510;
  current_limit 40;
  status CLOSED;
  mean_replacement_time 3600;
}
object fuse {
  name R1_12_47_1_fuse_4;
// downstream 97.03 kva on AS
  phases AN;
  from R1_12_47_1_node_503;
  to R1_12_47_1_node_511;
  current_limit 40;
  status CLOSED;
  mean_replacement_time 3600;
}
object fuse {
  name R1_12_47_1_fuse_5;
// downstream 3.89 kva on AS
  phases AN;
  from R1_12_47_1_node_512;
  to R1_12_47_1_node_513;
  current_limit 40;
  status CLOSED;
  mean_replacement_time 3600;
}
object fuse {
  name R1_12_47_1_fuse_6;
// downstream 142.59 kva on AS
  phases AN;
  from R1_12_47_1_node_474;
  to R1_12_47_1_node_477;
  current_limit 65;
  status CLOSED;
  mean_replacement_time 3600;
}
object fuse {
  name R1_12_47_1_fuse_7;
// downstream 118.66 kva on AS
  phases AN;
  from R1_12_47_1_node_474;
  to R1_12_47_1_node_480;
  current_limit 65;
  status CLOSED;
  mean_replacement_time 3600;
}
object fuse {
  name R1_12_47_1_fuse_8;
// downstream 4.08 kva on AS
  phases AN;
  from R1_12_47_1_node_522;
  to R1_12_47_1_node_524;
  current_limit 40;
  status CLOSED;
  mean_replacement_time 3600;
}
object fuse {
  name R1_12_47_1_fuse_9;
// downstream 44.05 kva on AS
  phases AN;
  from R1_12_47_1_node_576;
  to R1_12_47_1_node_577;
  current_limit 40;
  status CLOSED;
  mean_replacement_time 3600;
}
object fuse {
  name R1_12_47_1_fuse_10;
// downstream 9.48 kva on AS
  phases AN;
  from R1_12_47_1_node_515;
  to R1_12_47_1_node_518;
  current_limit 40;
  status CLOSED;
  mean_replacement_time 3600;
}
object fuse {
  name R1_12_47_1_fuse_11;
// downstream 7.50 kva on AS
  phases AN;
  from R1_12_47_1_node_580;
  to R1_12_47_1_node_581;
  current_limit 40;
  status CLOSED;
  mean_replacement_time 3600;
}
object fuse {
  name R1_12_47_1_fuse_12;
// downstream 14.95 kva on BS
  phases BN;
  from R1_12_47_1_node_562;
  to R1_12_47_1_node_574;
  current_limit 40;
  status CLOSED;
  mean_replacement_time 3600;
}
object fuse {
  name R1_12_47_1_fuse_13;
// downstream 101.64 kva on CS
  phases CN;
  from R1_12_47_1_node_561;
  to R1_12_47_1_node_567;
  current_limit 40;
  status CLOSED;
  mean_replacement_time 3600;
}
object fuse {
  name R1_12_47_1_fuse_14;
// downstream 54.25 kva on AS
  phases AN;
  from R1_12_47_1_node_485;
  to R1_12_47_1_node_487;
  current_limit 40;
  status CLOSED;
  mean_replacement_time 3600;
}
object fuse {
  name R1_12_47_1_fuse_15;
// downstream 0.25 kva on AS
  phases AN;
  from R1_12_47_1_node_560;
  to R1_12_47_1_node_566;
  current_limit 40;
  status CLOSED;
  mean_replacement_time 3600;
}
object fuse {
  name R1_12_47_1_fuse_16;
// downstream 22.46 kva on AS
  phases AN;
  from R1_12_47_1_node_569;
  to R1_12_47_1_node_570;
  current_limit 40;
  status CLOSED;
  mean_replacement_time 3600;
}
object fuse {
  name R1_12_47_1_fuse_17;
// downstream 7.97 kva on AS
  phases AN;
  from R1_12_47_1_node_496;
  to R1_12_47_1_node_498;
  current_limit 40;
  status CLOSED;
  mean_replacement_time 3600;
}
object fuse {
  name R1_12_47_1_fuse_18;
// downstream 11.94 kva on AS
  phases AN;
  from R1_12_47_1_node_490;
  to R1_12_47_1_node_492;
  current_limit 40;
  status CLOSED;
  mean_replacement_time 3600;
}
object fuse {
  name R1_12_47_1_fuse_19;
// downstream 55.49 kva on CS
  phases CN;
  from R1_12_47_1_node_559;
  to R1_12_47_1_node_563;
  current_limit 40;
  status CLOSED;
  mean_replacement_time 3600;
}
object fuse {
  name R1_12_47_1_fuse_20;
// downstream 6.62 kva on AS
  phases AN;
  from R1_12_47_1_node_417;
  to R1_12_47_1_node_418;
  current_limit 40;
  status CLOSED;
  mean_replacement_time 3600;
}
object fuse {
  name R1_12_47_1_fuse_21;
// downstream 7.08 kva on AS
  phases AN;
  from R1_12_47_1_node_552;
  to R1_12_47_1_node_553;
  current_limit 40;
  status CLOSED;
  mean_replacement_time 3600;
}
object fuse {
  name R1_12_47_1_fuse_22;
// downstream 23.07 kva on AS
  phases AN;
  from R1_12_47_1_node_461;
  to R1_12_47_1_node_466;
  current_limit 40;
  status CLOSED;
  mean_replacement_time 3600;
}
object fuse {
  name R1_12_47_1_fuse_23;
// downstream 17.48 kva on CS
  phases CN;
  from R1_12_47_1_node_551;
  to R1_12_47_1_node_555;
  current_limit 40;
  status CLOSED;
  mean_replacement_time 3600;
}
object fuse {
  name R1_12_47_1_fuse_24;
// downstream 62.23 kva on ABCS
  phases ABCN;
  from R1_12_47_1_node_456;
  to R1_12_47_1_node_457;
  current_limit 40;
  status CLOSED;
  mean_replacement_time 3600;
}
object fuse {
  name R1_12_47_1_fuse_25;
// downstream 2.81 kva on AS
  phases AN;
  from R1_12_47_1_node_532;
  to R1_12_47_1_node_534;
  current_limit 40;
  status CLOSED;
  mean_replacement_time 3600;
}
object fuse {
  name R1_12_47_1_fuse_26;
// downstream 5.07 kva on AS
  phases AN;
  from R1_12_47_1_node_547;
  to R1_12_47_1_node_558;
  current_limit 40;
  status CLOSED;
  mean_replacement_time 3600;
}
object fuse {
  name R1_12_47_1_fuse_27;
// downstream 26.28 kva on CS
  phases CN;
  from R1_12_47_1_node_546;
  to R1_12_47_1_node_548;
  current_limit 40;
  status CLOSED;
  mean_replacement_time 3600;
}
object fuse {
  name R1_12_47_1_fuse_28;
// downstream 15.35 kva on BS
  phases BN;
  from R1_12_47_1_node_449;
  to R1_12_47_1_node_450;
  current_limit 40;
  status CLOSED;
  mean_replacement_time 3600;
}
object fuse {
  name R1_12_47_1_fuse_29;
// downstream 20.06 kva on BS
  phases BN;
  from R1_12_47_1_node_546;
  to R1_12_47_1_node_556;
  current_limit 40;
  status CLOSED;
  mean_replacement_time 3600;
}
object fuse {
  name R1_12_47_1_fuse_30;
// downstream 17.82 kva on BS
  phases BN;
  from R1_12_47_1_node_446;
  to R1_12_47_1_node_447;
  current_limit 40;
  status CLOSED;
  mean_replacement_time 3600;
}
object fuse {
  name R1_12_47_1_fuse_31;
// downstream 7.75 kva on AS
  phases AN;
  from R1_12_47_1_node_326;
  to R1_12_47_1_node_327;
  current_limit 40;
  status CLOSED;
  mean_replacement_time 3600;
}
object fuse {
  name R1_12_47_1_fuse_32;
// downstream 18.86 kva on BS
  phases BN;
  from R1_12_47_1_node_539;
  to R1_12_47_1_node_541;
  current_limit 40;
  status CLOSED;
  mean_replacement_time 3600;
}
object fuse {
  name R1_12_47_1_fuse_33;
// downstream 5.02 kva on AS
  phases AN;
  from R1_12_47_1_node_540;
  to R1_12_47_1_node_545;
  current_limit 40;
  status CLOSED;
  mean_replacement_time 3600;
}
object fuse {
  name R1_12_47_1_fuse_34;
// downstream 513.74 kva on ABCS
  phases ABCN;
  from R1_12_47_1_node_434;
  to R1_12_47_1_node_435;
  current_limit 65;
  status CLOSED;
  mean_replacement_time 3600;
}
object fuse {
  name R1_12_47_1_fuse_35;
// downstream 5.07 kva on AS
  phases AN;
  from R1_12_47_1_node_355;
  to R1_12_47_1_node_356;
  current_limit 40;
  status CLOSED;
  mean_replacement_time 3600;
}
object fuse {
  name R1_12_47_1_fuse_36;
// downstream 71.24 kva on C
  phases CN;
  from R1_12_47_1_node_359;
  to R1_12_47_1_node_419;
  current_limit 40;
  status CLOSED;
  mean_replacement_time 3600;
}
object fuse {
  name R1_12_47_1_fuse_37;
// downstream 0.36 kva on AS
  phases AN;
  from R1_12_47_1_node_229;
  to R1_12_47_1_node_232;
  current_limit 40;
  status CLOSED;
  mean_replacement_time 3600;
}
object fuse {
  name R1_12_47_1_fuse_38;
// downstream 4.55 kva on AS
  phases AN;
  from R1_12_47_1_node_538;
  to R1_12_47_1_node_543;
  current_limit 40;
  status CLOSED;
  mean_replacement_time 3600;
}
object fuse {
  name R1_12_47_1_fuse_39;
// downstream 4.55 kva on AS
  phases AN;
  from R1_12_47_1_node_543;
  to R1_12_47_1_node_544;
  current_limit 40;
  status CLOSED;
  mean_replacement_time 3600;
}
object fuse {
  name R1_12_47_1_fuse_40;
// downstream 23.93 kva on AS
  phases AN;
  from R1_12_47_1_node_342;
  to R1_12_47_1_node_354;
  current_limit 40;
  status CLOSED;
  mean_replacement_time 3600;
}
object fuse {
  name R1_12_47_1_fuse_41;
// downstream 3.00 kva on AS
  phases AN;
  from R1_12_47_1_node_335;
  to R1_12_47_1_node_336;
  current_limit 40;
  status CLOSED;
  mean_replacement_time 3600;
}
object fuse {
  name R1_12_47_1_fuse_42;
// downstream 26.71 kva on CS
  phases CN;
  from R1_12_47_1_node_536;
  to R1_12_47_1_node_537;
  current_limit 40;
  status CLOSED;
  mean_replacement_time 3600;
}
object fuse {
  name R1_12_47_1_fuse_43;
// downstream 49.48 kva on AS
  phases AN;
  from R1_12_47_1_node_346;
  to R1_12_47_1_node_410;
  current_limit 40;
  status CLOSED;
  mean_replacement_time 3600;
}
object fuse {
  name R1_12_47_1_fuse_44;
// downstream 38.77 kva on C
  phases CN;
  from R1_12_47_1_node_345;
  to R1_12_47_1_node_358;
  current_limit 40;
  status CLOSED;
  mean_replacement_time 3600;
}
object fuse {
  name R1_12_47_1_fuse_45;
// downstream 19.11 kva on CS
  phases CN;
  from R1_12_47_1_node_441;
  to R1_12_47_1_node_442;
  current_limit 40;
  status CLOSED;
  mean_replacement_time 3600;
}
object fuse {
  name R1_12_47_1_fuse_46;
// downstream 3.94 kva on AS
  phases AN;
  from R1_12_47_1_node_420;
  to R1_12_47_1_node_421;
  current_limit 40;
  status CLOSED;
  mean_replacement_time 3600;
}
object fuse {
  name R1_12_47_1_fuse_47;
// downstream 267.78 kva on ABCS
  phases ABCN;
  from R1_12_47_1_node_439;
  to R1_12_47_1_node_440;
  current_limit 40;
  status CLOSED;
  mean_replacement_time 3600;
}
object fuse {
  name R1_12_47_1_fuse_48;
// downstream 1680.15 kva on ABCS
  phases ABCN;
  from R1_12_47_1_node_217;
  to R1_12_47_1_node_334;
  current_limit 200;
  status CLOSED;
  mean_replacement_time 3600;
}
object fuse {
  name R1_12_47_1_fuse_49;
// downstream 17.18 kva on BS
  phases BN;
  from R1_12_47_1_node_433;
  to R1_12_47_1_node_432;
  current_limit 40;
  status CLOSED;
  mean_replacement_time 3600;
}
object fuse {
  name R1_12_47_1_fuse_50;
// downstream 7.11 kva on AS
  phases AN;
  from R1_12_47_1_node_233;
  to R1_12_47_1_node_237;
  current_limit 40;
  status CLOSED;
  mean_replacement_time 3600;
}
object fuse {
  name R1_12_47_1_fuse_51;
// downstream 415.52 kva on ABCS
  phases ABCN;
  from R1_12_47_1_node_234;
  to R1_12_47_1_node_240;
  current_limit 65;
  status CLOSED;
  mean_replacement_time 3600;
}
object fuse {
  name R1_12_47_1_fuse_52;
// downstream 203.17 kva on CS
  phases CN;
  from R1_12_47_1_node_420;
  to R1_12_47_1_node_423;
  current_limit 100;
  status CLOSED;
  mean_replacement_time 3600;
}
object fuse {
  name R1_12_47_1_fuse_53;
// downstream 34.26 kva on AS
  phases AN;
  from R1_12_47_1_node_338;
  to R1_12_47_1_node_347;
  current_limit 40;
  status CLOSED;
  mean_replacement_time 3600;
}
object fuse {
  name R1_12_47_1_fuse_54;
// downstream 4.63 kva on AS
  phases AN;
  from R1_12_47_1_node_347;
  to R1_12_47_1_node_353;
  current_limit 40;
  status CLOSED;
  mean_replacement_time 3600;
}
object fuse {
  name R1_12_47_1_fuse_55;
// downstream 89.05 kva on CS
  phases CN;
  from R1_12_47_1_node_331;
  to R1_12_47_1_node_332;
  current_limit 40;
  status CLOSED;
  mean_replacement_time 3600;
}
object fuse {
  name R1_12_47_1_fuse_56;
// downstream 9.59 kva on A
  phases AN;
  from R1_12_47_1_node_361;
  to R1_12_47_1_node_365;
  current_limit 40;
  status CLOSED;
  mean_replacement_time 3600;
}
object fuse {
  name R1_12_47_1_fuse_57;
// downstream 25.95 kva on CS
  phases CN;
  from R1_12_47_1_node_229;
  to R1_12_47_1_node_230;
  current_limit 40;
  status CLOSED;
  mean_replacement_time 3600;
}
object fuse {
  name R1_12_47_1_fuse_58;
// downstream 8.88 kva on AS
  phases AN;
  from R1_12_47_1_node_348;
  to R1_12_47_1_node_352;
  current_limit 40;
  status CLOSED;
  mean_replacement_time 3600;
}
object fuse {
  name R1_12_47_1_fuse_59;
// downstream 74.07 kva on ABCS
  phases ABCN;
  from R1_12_47_1_node_361;
  to R1_12_47_1_node_362;
  current_limit 40;
  status CLOSED;
  mean_replacement_time 3600;
}
object fuse {
  name R1_12_47_1_fuse_60;
// downstream 225.87 kva on CS
  phases CN;
  from R1_12_47_1_node_218;
  to R1_12_47_1_node_219;
  current_limit 100;
  status CLOSED;
  mean_replacement_time 3600;
}
object fuse {
  name R1_12_47_1_fuse_61;
// downstream 4.16 kva on AS
  phases AN;
  from R1_12_47_1_node_350;
  to R1_12_47_1_node_351;
  current_limit 40;
  status CLOSED;
  mean_replacement_time 3600;
}
object fuse {
  name R1_12_47_1_fuse_62;
// downstream 21.58 kva on BS
  phases BN;
  from R1_12_47_1_node_211;
  to R1_12_47_1_node_213;
  current_limit 40;
  status CLOSED;
  mean_replacement_time 3600;
}
object fuse {
  name R1_12_47_1_fuse_63;
// downstream 13.20 kva on AS
  phases AN;
  from R1_12_47_1_node_374;
  to R1_12_47_1_node_381;
  current_limit 40;
  status CLOSED;
  mean_replacement_time 3600;
}
object fuse {
  name R1_12_47_1_fuse_64;
// downstream 15.20 kva on CS
  phases CN;
  from R1_12_47_1_node_368;
  to R1_12_47_1_node_370;
  current_limit 40;
  status CLOSED;
  mean_replacement_time 3600;
}
object fuse {
  name R1_12_47_1_fuse_65;
// downstream 67.89 kva on AS
  phases AN;
  from R1_12_47_1_node_371;
  to R1_12_47_1_node_372;
  current_limit 40;
  status CLOSED;
  mean_replacement_time 3600;
}
object fuse {
  name R1_12_47_1_fuse_66;
// downstream 101.59 kva on BS
  phases BN;
  from R1_12_47_1_node_203;
  to R1_12_47_1_node_208;
  current_limit 40;
  status CLOSED;
  mean_replacement_time 3600;
}
object fuse {
  name R1_12_47_1_fuse_67;
// downstream 3.47 kva on AS
  phases AN;
  from R1_12_47_1_node_372;
  to R1_12_47_1_node_380;
  current_limit 40;
  status CLOSED;
  mean_replacement_time 3600;
}
object fuse {
  name R1_12_47_1_fuse_68;
// downstream 10.64 kva on AS
  phases AN;
  from R1_12_47_1_node_383;
  to R1_12_47_1_node_384;
  current_limit 40;
  status CLOSED;
  mean_replacement_time 3600;
}
object fuse {
  name R1_12_47_1_fuse_69;
// downstream 12.98 kva on AS
  phases AN;
  from R1_12_47_1_node_391;
  to R1_12_47_1_node_394;
  current_limit 40;
  status CLOSED;
  mean_replacement_time 3600;
}
object fuse {
  name R1_12_47_1_fuse_70;
// downstream 11.67 kva on BS
  phases BN;
  from R1_12_47_1_node_211;
  to R1_12_47_1_node_214;
  current_limit 40;
  status CLOSED;
  mean_replacement_time 3600;
}
object fuse {
  name R1_12_47_1_fuse_71;
// downstream 31.25 kva on BS
  phases BN;
  from R1_12_47_1_node_393;
  to R1_12_47_1_node_396;
  current_limit 40;
  status CLOSED;
  mean_replacement_time 3600;
}
object fuse {
  name R1_12_47_1_fuse_72;
// downstream 66.34 kva on BS
  phases BN;
  from R1_12_47_1_node_205;
  to R1_12_47_1_node_206;
  current_limit 40;
  status CLOSED;
  mean_replacement_time 3600;
}
object fuse {
  name R1_12_47_1_fuse_73;
// downstream 66.34 kva on BS
  phases BN;
  from R1_12_47_1_node_175;
  to R1_12_47_1_node_205;
  current_limit 40;
  status CLOSED;
  mean_replacement_time 3600;
}
object fuse {
  name R1_12_47_1_fuse_74;
// downstream 3.31 kva on AS
  phases AN;
  from R1_12_47_1_node_140;
  to R1_12_47_1_node_163;
  current_limit 40;
  status CLOSED;
  mean_replacement_time 3600;
}
object fuse {
  name R1_12_47_1_fuse_75;
// downstream 502.56 kva on CS
  phases CN;
  from R1_12_47_1_node_140;
  to R1_12_47_1_node_167;
  current_limit 200;
  status CLOSED;
  mean_replacement_time 3600;
}
object fuse {
  name R1_12_47_1_fuse_76;
// downstream 21.07 kva on CS
  phases CN;
  from R1_12_47_1_node_168;
  to R1_12_47_1_node_170;
  current_limit 40;
  status CLOSED;
  mean_replacement_time 3600;
}
object fuse {
  name R1_12_47_1_fuse_77;
// downstream 20.81 kva on AS
  phases AN;
  from R1_12_47_1_node_159;
  to R1_12_47_1_node_160;
  current_limit 40;
  status CLOSED;
  mean_replacement_time 3600;
}
object fuse {
  name R1_12_47_1_fuse_78;
// downstream 47.56 kva on BS
  phases BN;
  from R1_12_47_1_node_403;
  to R1_12_47_1_node_405;
  current_limit 40;
  status CLOSED;
  mean_replacement_time 3600;
}
object fuse {
  name R1_12_47_1_fuse_79;
// downstream 269.42 kva on CS
  phases CN;
  from R1_12_47_1_node_173;
  to R1_12_47_1_node_182;
  current_limit 100;
  status CLOSED;
  mean_replacement_time 3600;
}
object fuse {
  name R1_12_47_1_fuse_80;
// downstream 12.71 kva on CS
  phases CN;
  from R1_12_47_1_node_182;
  to R1_12_47_1_node_185;
  current_limit 40;
  status CLOSED;
  mean_replacement_time 3600;
}
object fuse {
  name R1_12_47_1_fuse_81;
// downstream 104.83 kva on AS
  phases AN;
  from R1_12_47_1_node_133;
  to R1_12_47_1_node_141;
  current_limit 40;
  status CLOSED;
  mean_replacement_time 3600;
}
object fuse {
  name R1_12_47_1_fuse_82;
// downstream 4.33 kva on AS
  phases AN;
  from R1_12_47_1_node_404;
  to R1_12_47_1_node_408;
  current_limit 40;
  status CLOSED;
  mean_replacement_time 3600;
}
object fuse {
  name R1_12_47_1_fuse_83;
// downstream 55.82 kva on CS
  phases CN;
  from R1_12_47_1_node_183;
  to R1_12_47_1_node_186;
  current_limit 40;
  status CLOSED;
  mean_replacement_time 3600;
}
object fuse {
  name R1_12_47_1_fuse_84;
// downstream 6.95 kva on AS
  phases AN;
  from R1_12_47_1_node_147;
  to R1_12_47_1_node_149;
  current_limit 40;
  status CLOSED;
  mean_replacement_time 3600;
}
object fuse {
  name R1_12_47_1_fuse_85;
// downstream 120.77 kva on BS
  phases BN;
  from R1_12_47_1_node_134;
  to R1_12_47_1_node_135;
  current_limit 65;
  status CLOSED;
  mean_replacement_time 3600;
}
object fuse {
  name R1_12_47_1_fuse_86;
  phases CN;
  from R1_12_47_1_node_189;
  to R1_12_47_1_node_190;
  current_limit 50000;
  status CLOSED;
  mean_replacement_time 3600;
}
object fuse {
  name R1_12_47_1_fuse_87;
// downstream 14.47 kva on BS
  phases BN;
  from R1_12_47_1_node_74;
  to R1_12_47_1_node_78;
  current_limit 40;
  status CLOSED;
  mean_replacement_time 3600;
}
object fuse {
  name R1_12_47_1_fuse_88;
// downstream 31.38 kva on CS
  phases CN;
  from R1_12_47_1_node_191;
  to R1_12_47_1_node_193;
  current_limit 40;
  status CLOSED;
  mean_replacement_time 3600;
}
object fuse {
  name R1_12_47_1_fuse_89;
// downstream 6.15 kva on AS
  phases AN;
  from R1_12_47_1_node_67;
  to R1_12_47_1_node_72;
  current_limit 40;
  status CLOSED;
  mean_replacement_time 3600;
}
object fuse {
  name R1_12_47_1_fuse_90;
// downstream 1.87 kva on AS
  phases AN;
  from R1_12_47_1_node_23;
  to R1_12_47_1_node_24;
  current_limit 40;
  status CLOSED;
  mean_replacement_time 3600;
}
object fuse {
  name R1_12_47_1_fuse_91;
// downstream 13.19 kva on BS
  phases BN;
  from R1_12_47_1_node_44;
  to R1_12_47_1_node_128;
  current_limit 40;
  status CLOSED;
  mean_replacement_time 3600;
}
object fuse {
  name R1_12_47_1_fuse_92;
// downstream 30.95 kva on CS
  phases CN;
  from R1_12_47_1_node_44;
  to R1_12_47_1_node_45;
  current_limit 40;
  status CLOSED;
  mean_replacement_time 3600;
}
object fuse {
  name R1_12_47_1_fuse_93;
// downstream 11.75 kva on BS
  phases BN;
  from R1_12_47_1_node_44;
  to R1_12_47_1_node_127;
  current_limit 40;
  status CLOSED;
  mean_replacement_time 3600;
}
object fuse {
  name R1_12_47_1_fuse_94;
// downstream 7.91 kva on AS
  phases AN;
  from R1_12_47_1_node_64;
  to R1_12_47_1_node_70;
  current_limit 40;
  status CLOSED;
  mean_replacement_time 3600;
}
object fuse {
  name R1_12_47_1_fuse_95;
// downstream 71.45 kva on CS
  phases CN;
  from R1_12_47_1_node_195;
  to R1_12_47_1_node_197;
  current_limit 40;
  status CLOSED;
  mean_replacement_time 3600;
}
object fuse {
  name R1_12_47_1_fuse_96;
// downstream 24.32 kva on CS
  phases CN;
  from R1_12_47_1_node_195;
  to R1_12_47_1_node_196;
  current_limit 40;
  status CLOSED;
  mean_replacement_time 3600;
}
object fuse {
  name R1_12_47_1_fuse_97;
// downstream 3.56 kva on AS
  phases AN;
  from R1_12_47_1_node_63;
  to R1_12_47_1_node_69;
  current_limit 40;
  status CLOSED;
  mean_replacement_time 3600;
}
object fuse {
  name R1_12_47_1_fuse_98;
// downstream 576.91 kva on ABCS
  phases ABCN;
  from R1_12_47_1_node_61;
  to R1_12_47_1_node_62;
  current_limit 100;
  status CLOSED;
  mean_replacement_time 3600;
}
object fuse {
  name R1_12_47_1_fuse_99;
// downstream 1.98 kva on AS
  phases AN;
  from R1_12_47_1_node_62;
  to R1_12_47_1_node_68;
  current_limit 40;
  status CLOSED;
  mean_replacement_time 3600;
}
object fuse {
  name R1_12_47_1_fuse_100;
// downstream 3.83 kva on AS
  phases AN;
  from R1_12_47_1_node_6;
  to R1_12_47_1_node_28;
  current_limit 40;
  status CLOSED;
  mean_replacement_time 3600;
}
object fuse {
  name R1_12_47_1_fuse_101;
// downstream 9.87 kva on AS
  phases AN;
  from R1_12_47_1_node_21;
  to R1_12_47_1_node_22;
  current_limit 40;
  status CLOSED;
  mean_replacement_time 3600;
}
object fuse {
  name R1_12_47_1_fuse_102;
// downstream 27.73 kva on A
  phases AN;
  from R1_12_47_1_node_13;
  to R1_12_47_1_node_34;
  current_limit 40;
  status CLOSED;
  mean_replacement_time 3600;
}
object fuse {
  name R1_12_47_1_fuse_103;
// downstream 1176.18 kva on ABCS
  phases ABCN;
  from R1_12_47_1_node_47;
  to R1_12_47_1_node_48;
  current_limit 200;
  status CLOSED;
  mean_replacement_time 3600;
}
object fuse {
  name R1_12_47_1_fuse_104;
// downstream 97.75 kva on BS
  phases BN;
  from R1_12_47_1_node_14;
  to R1_12_47_1_node_38;
  current_limit 40;
  status CLOSED;
  mean_replacement_time 3600;
}
object fuse {
  name R1_12_47_1_fuse_105;
// downstream 6.92 kva on A
  phases AN;
  from R1_12_47_1_node_11;
  to R1_12_47_1_node_31;
  current_limit 40;
  status CLOSED;
  mean_replacement_time 3600;
}
object fuse {
  name R1_12_47_1_fuse_106;
// downstream 409.97 kva on ABCS
  phases ABCN;
  from R1_12_47_1_node_61;
  to R1_12_47_1_node_79;
  current_limit 65;
  status CLOSED;
  mean_replacement_time 3600;
}
object fuse {
  name R1_12_47_1_fuse_107;
// downstream 3.64 kva on AS
  phases AN;
  from R1_12_47_1_node_25;
  to R1_12_47_1_node_26;
  current_limit 40;
  status CLOSED;
  mean_replacement_time 3600;
}
object fuse {
  name R1_12_47_1_fuse_108;
// downstream 18.06 kva on BS
  phases BN;
  from R1_12_47_1_node_7;
  to R1_12_47_1_node_29;
  current_limit 40;
  status CLOSED;
  mean_replacement_time 3600;
}
object fuse {
  name R1_12_47_1_fuse_109;
// downstream 17.81 kva on CS
  phases CN;
  from R1_12_47_1_node_52;
  to R1_12_47_1_node_54;
  current_limit 40;
  status CLOSED;
  mean_replacement_time 3600;
}
object fuse {
  name R1_12_47_1_fuse_110;
// downstream 5.13 kva on AS
  phases AN;
  from R1_12_47_1_node_50;
  to R1_12_47_1_node_53;
  current_limit 40;
  status CLOSED;
  mean_replacement_time 3600;
}
object fuse {
  name R1_12_47_1_fuse_111;
// downstream 8.71 kva on BS
  phases BN;
  from R1_12_47_1_node_80;
  to R1_12_47_1_node_84;
  current_limit 40;
  status CLOSED;
  mean_replacement_time 3600;
}
object fuse {
  name R1_12_47_1_fuse_112;
// downstream 5.68 kva on AS
  phases AN;
  from R1_12_47_1_node_117;
  to R1_12_47_1_node_119;
  current_limit 40;
  status CLOSED;
  mean_replacement_time 3600;
}
object fuse {
  name R1_12_47_1_fuse_113;
// downstream 41.05 kva on CS
  phases CN;
  from R1_12_47_1_node_88;
  to R1_12_47_1_node_91;
  current_limit 40;
  status CLOSED;
  mean_replacement_time 3600;
}
object fuse {
  name R1_12_47_1_fuse_114;
// downstream 71.72 kva on AS
  phases AN;
  from R1_12_47_1_node_88;
  to R1_12_47_1_node_106;
  current_limit 40;
  status CLOSED;
  mean_replacement_time 3600;
}
object fuse {
  name R1_12_47_1_fuse_115;
// downstream 11.52 kva on AS
  phases AN;
  from R1_12_47_1_node_121;
  to R1_12_47_1_node_125;
  current_limit 40;
  status CLOSED;
  mean_replacement_time 3600;
}
object fuse {
  name R1_12_47_1_fuse_116;
// downstream 79.38 kva on CS
  phases CN;
  from R1_12_47_1_node_89;
  to R1_12_47_1_node_93;
  current_limit 40;
  status CLOSED;
  mean_replacement_time 3600;
}
object fuse {
  name R1_12_47_1_fuse_117;
// downstream 2.76 kva on AS
  phases AN;
  from R1_12_47_1_node_117;
  to R1_12_47_1_node_118;
  current_limit 40;
  status CLOSED;
  mean_replacement_time 3600;
}
object fuse {
  name R1_12_47_1_fuse_118;
// downstream 24.45 kva on AS
  phases AN;
  from R1_12_47_1_node_107;
  to R1_12_47_1_node_108;
  current_limit 40;
  status CLOSED;
  mean_replacement_time 3600;
}
object fuse {
  name R1_12_47_1_fuse_119;
  phases CN;
  from R1_12_47_1_node_101;
  to R1_12_47_1_node_102;
  current_limit 50000;
  status CLOSED;
  mean_replacement_time 3600;
}
object fuse {
  name R1_12_47_1_fuse_120;
// downstream 5.76 kva on AS
  phases AN;
  from R1_12_47_1_node_123;
  to R1_12_47_1_node_124;
  current_limit 40;
  status CLOSED;
  mean_replacement_time 3600;
}
object fuse {
  name R1_12_47_1_fuse_121;
// downstream 92.19 kva on CS
  phases CN;
  from R1_12_47_1_node_90;
  to R1_12_47_1_node_97;
  current_limit 40;
  status CLOSED;
  mean_replacement_time 3600;
}
object fuse {
  name R1_12_47_1_fuse_122;
// downstream 18.57 kva on CS
  phases CN;
  from R1_12_47_1_node_103;
  to R1_12_47_1_node_105;
  current_limit 40;
  status CLOSED;
  mean_replacement_time 3600;
}
object switch {
  name R1_12_47_1_switch_1;
// downstream 644.57 kva on ABCS
  phases ABCN;
  from R1_12_47_1_node_217;
  to R1_12_47_1_node_535;
  status CLOSED;
}
object switch {
  name R1_12_47_1_switch_2;
// downstream 1404.22 kva on ABCS
  phases ABCN;
  from R1_12_47_1_node_342;
  to R1_12_47_1_node_343;
  status CLOSED;
}
object switch {
  name R1_12_47_1_switch_3;
// downstream 1285.37 kva on ABCS
  phases ABCN;
  from R1_12_47_1_node_227;
  to R1_12_47_1_node_228;
  status CLOSED;
}
object switch {
  name R1_12_47_1_switch_4;
// downstream 3610.08 kva on ABCS
  phases ABCN;
  from R1_12_47_1_node_216;
  to R1_12_47_1_node_217;
  status CLOSED;
}
object switch {
  name R1_12_47_1_switch_5;
// downstream 787.73 kva on ABCS
  phases ABCN;
  from R1_12_47_1_node_234;
  to R1_12_47_1_node_268;
  status CLOSED;
}
object switch {
  name R1_12_47_1_switch_6;
// downstream 369.94 kva on ABCS
  phases ABCN;
  from R1_12_47_1_node_77;
  to R1_12_47_1_node_404;
  status CLOSED;
}
object switch {
  name R1_12_47_1_switch_7;
// downstream 4955.15 kva on ABCS
  phases ABCN;
  from R1_12_47_1_node_17;
  to R1_12_47_1_node_43;
  status CLOSED;
}
object switch {
  name R1_12_47_1_switch_8;
  phases ABCN;
  from R1_12_47_1_node_18;
  to R1_12_47_1_node_19;
  status CLOSED;
}
object switch {
  name R1_12_47_1_switch_9;
// downstream 6555.44 kva on ABCS
  phases ABCN;
  from R1_12_47_1_node_613;
  to R1_12_47_1_node_612;
  status CLOSED;
}
object overhead_line {
  name R1_12_47_1_ol_1;
// downstream 8.52 kva on AS
  phases AN;
  from R1_12_47_1_node_349;
  to R1_12_47_1_node_350;
  length 540.635;
  configuration ID_130;
}
object overhead_line {
  name R1_12_47_1_ol_2;
// downstream 47.94 kva on ABCS
  phases ABCN;
  from R1_12_47_1_node_363;
  to R1_12_47_1_node_364;
  length 178.910;
  configuration ID_131;
}
object overhead_line {
  name R1_12_47_1_ol_3;
// downstream 62.01 kva on CS
  phases CN;
  from R1_12_47_1_node_426;
  to R1_12_47_1_node_430;
  length 123.486;
  configuration ID_133;
}
object overhead_line {
  name R1_12_47_1_ol_4;
// downstream 3885.01 kva on ABCS
  phases ABCN;
  from R1_12_47_1_node_203;
  to R1_12_47_1_node_204;
  length 341.187;
  configuration ID_134;
}
object overhead_line {
  name R1_12_47_1_ol_5;
// downstream 2.40 kva on AS
  phases AN;
  from R1_12_47_1_node_378;
  to R1_12_47_1_node_379;
  length 309.833;
  configuration ID_135;
}
object overhead_line {
  name R1_12_47_1_ol_6;
// downstream 30.69 kva on ABCS
  phases ABCN;
  from R1_12_47_1_node_364;
  to R1_12_47_1_node_367;
  length 195.571;
  configuration ID_131;
}
object overhead_line {
  name R1_12_47_1_ol_7;
// downstream 18.13 kva on CS
  phases CN;
  from R1_12_47_1_node_430;
  to R1_12_47_1_node_431;
  length 223.369;
  configuration ID_136;
}
object overhead_line {
  name R1_12_47_1_ol_8;
// downstream 67.89 kva on AS
  phases AN;
  from R1_12_47_1_node_368;
  to R1_12_47_1_node_371;
  length 229.438;
  configuration ID_130;
}
object overhead_line {
  name R1_12_47_1_ol_9;
  phases ABCN;
  from R1_12_47_1_node_367;
  to R1_12_47_1_node_616;
  length 177.714;
  configuration ID_131;
}
object overhead_line {
  name R1_12_47_1_ol_10;
// downstream 53.03 kva on AS
  phases AN;
  from R1_12_47_1_node_372;
  to R1_12_47_1_node_373;
  length 358.974;
  configuration ID_130;
}
object overhead_line {
  name R1_12_47_1_ol_11;
// downstream 385.32 kva on ABCS
  phases ABCN;
  from R1_12_47_1_node_559;
  to R1_12_47_1_node_560;
  length 223.978;
  configuration ID_134;
}
object overhead_line {
  name R1_12_47_1_ol_12;
// downstream 87.10 kva on AS
  phases AN;
  from R1_12_47_1_node_595;
  to R1_12_47_1_node_596;
  length 666.009;
  configuration ID_130;
}
object overhead_line {
  name R1_12_47_1_ol_13;
// downstream 43.47 kva on AS
  phases AN;
  from R1_12_47_1_node_596;
  to R1_12_47_1_node_597;
  length 200.721;
  configuration ID_130;
}
object overhead_line {
  name R1_12_47_1_ol_14;
// downstream 3.78 kva on AS
  phases AN;
  from R1_12_47_1_node_597;
  to R1_12_47_1_node_598;
  length 179.387;
  configuration ID_130;
}
object overhead_line {
  name R1_12_47_1_ol_15;
  phases ABCN;
  from R1_12_47_1_node_594;
  to R1_12_47_1_node_2;
  length 133.128;
  configuration ID_134;
}
object overhead_line {
  name R1_12_47_1_ol_16;
// downstream 95.57 kva on ABCS
  phases ABCN;
  from R1_12_47_1_node_593;
  to R1_12_47_1_node_594;
  length 185.398;
  configuration ID_134;
}
object overhead_line {
  name R1_12_47_1_ol_17;
// downstream 110.19 kva on ABCS
  phases ABCN;
  from R1_12_47_1_node_592;
  to R1_12_47_1_node_593;
  length 171.388;
  configuration ID_134;
}
object overhead_line {
  name R1_12_47_1_ol_18;
// downstream 17.34 kva on AS
  phases AN;
  from R1_12_47_1_node_506;
  to R1_12_47_1_node_507;
  length 276.330;
  configuration ID_130;
}
object overhead_line {
  name R1_12_47_1_ol_19;
// downstream 14.17 kva on AS
  phases AN;
  from R1_12_47_1_node_507;
  to R1_12_47_1_node_508;
  length 60.018;
  configuration ID_130;
}
object overhead_line {
  name R1_12_47_1_ol_20;
// downstream 130.48 kva on ABCS
  phases ABCN;
  from R1_12_47_1_node_591;
  to R1_12_47_1_node_592;
  length 184.623;
  configuration ID_134;
}
object overhead_line {
  name R1_12_47_1_ol_21;
// downstream 21.06 kva on AS
  phases AN;
  from R1_12_47_1_node_505;
  to R1_12_47_1_node_506;
  length 279.910;
  configuration ID_130;
}
object overhead_line {
  name R1_12_47_1_ol_22;
// downstream 27.21 kva on AS
  phases AN;
  from R1_12_47_1_node_504;
  to R1_12_47_1_node_505;
  length 278.677;
  configuration ID_130;
}
object overhead_line {
  name R1_12_47_1_ol_23;
// downstream 163.54 kva on ABCS
  phases ABCN;
  from R1_12_47_1_node_590;
  to R1_12_47_1_node_591;
  length 356.862;
  configuration ID_134;
}
object overhead_line {
  name R1_12_47_1_ol_24;
// downstream 8.27 kva on AS
  phases AN;
  from R1_12_47_1_node_508;
  to R1_12_47_1_node_509;
  length 285.454;
  configuration ID_130;
}
object overhead_line {
  name R1_12_47_1_ol_25;
// downstream 37.24 kva on AS
  phases AN;
  from R1_12_47_1_node_503;
  to R1_12_47_1_node_504;
  length 203.665;
  configuration ID_130;
}
object overhead_line {
  name R1_12_47_1_ol_26;
// downstream 134.26 kva on AS
  phases AN;
  from R1_12_47_1_node_478;
  to R1_12_47_1_node_503;
  length 290.086;
  configuration ID_130;
}
object overhead_line {
  name R1_12_47_1_ol_27;
// downstream 191.83 kva on ABCS
  phases ABCN;
  from R1_12_47_1_node_576;
  to R1_12_47_1_node_590;
  length 421.091;
  configuration ID_134;
}
object overhead_line {
  name R1_12_47_1_ol_28;
// downstream 138.89 kva on AS
  phases AN;
  from R1_12_47_1_node_475;
  to R1_12_47_1_node_478;
  length 234.617;
  configuration ID_130;
}
object overhead_line {
  name R1_12_47_1_ol_29;
// downstream 142.59 kva on AS
  phases AN;
  from R1_12_47_1_node_477;
  to R1_12_47_1_node_475;
  length 183.139;
  configuration ID_130;
}
object overhead_line {
  name R1_12_47_1_ol_30;
// downstream 93.08 kva on AS
  phases AN;
  from R1_12_47_1_node_511;
  to R1_12_47_1_node_512;
  length 146.561;
  configuration ID_130;
}
object overhead_line {
  name R1_12_47_1_ol_31;
...